
  EPA STORM WATER MANAGEMENT MODEL - VERSION 5.2 (Build 5.2.1)
  ------------------------------------------------------------

  SW 1 0 8 8 9 9 10  
  A1 'STEVEN''S AVENUE DRAINAGE DISTRICT LANCASTER PA OLD SWMM EXAMPLE.' 
  A2 'STORM OF NOVEMBER 28 1973 RAINFALL DURATION 40 MIN.'  
  
  *************
  Element Count
  *************
  Number of rain gages ...... 1
  Number of subcatchments ... 29
  Number of nodes ........... 44
  Number of links ........... 35
  Number of pollutants ...... 4
  Number of land uses ....... 1
  
  
  *****************
  Pollutant Summary
  *****************
                               Ppt.      GW         Kdecay
  Name                 Units   Concen.   Concen.    1/days    CoPollutant
  -----------------------------------------------------------------------
  TOT.SOL               MG/L     15.00      0.00      0.00
  SUS.SOL               MG/L      8.00      0.00      0.00
  BOD5                  MG/L      5.00      0.00      0.00
  COD                   MG/L     10.00      0.00      0.00
  
  
  ***************
  Landuse Summary
  ***************
                         Sweeping   Maximum      Last
  Name                   Interval   Removal     Swept
  ---------------------------------------------------
  FAMILY                     0.00      0.00      0.00
  
  
  ****************
  Raingage Summary
  ****************
                                                      Data       Recording
  Name                 Data Source                    Type       Interval 
  ------------------------------------------------------------------------
  GAGE1                RainSeries1                    INTENSITY    5 min.
  
  
  ********************
  Subcatchment Summary
  ********************
  Name                       Area     Width   %Imperv    %Slope Rain Gage            Outlet              
  -----------------------------------------------------------------------------------------------------------
  1                         26.82   2785.00     48.00    6.1000 GAGE1                1                   
  2                         10.55    817.00     48.00    5.1000 GAGE1                2                   
  3                          3.72    542.10     48.00    4.2000 GAGE1                3                   
  4                          7.33    690.00     48.00    4.1000 GAGE1                804                 
  5                          6.97    605.70     51.00    3.4000 GAGE1                805                 
  6                          3.73    746.50     47.00    4.6000 GAGE1                806                 
  7                          4.60    517.00     57.00    2.2000 GAGE1                807                 
  8                          3.90    786.50     53.00    3.6000 GAGE1                808                 
  9                          2.26    773.50     53.00    2.4000 GAGE1                809                 
  10                         2.21    576.20     53.00    4.5000 GAGE1                810                 
  11                         3.28    551.50     53.80    4.4000 GAGE1                811                 
  12                         5.17    688.50     48.00    2.7000 GAGE1                812                 
  13                         5.55    499.20     44.40    5.2000 GAGE1                813                 
  14                         8.54    536.60     49.60    4.6000 GAGE1                814                 
  15                         3.83    667.80     34.00    3.8000 GAGE1                815                 
  16                         3.67    306.70     34.00    4.8000 GAGE1                816                 
  17                         3.92    686.80     54.00    4.1000 GAGE1                817                 
  18                         3.34    297.20     53.00    3.6000 GAGE1                18                  
  19                         3.64    468.20     48.80    2.5000 GAGE1                819                 
  20                         6.83    676.60     48.00    5.2000 GAGE1                820                 
  21                         2.29    387.00     37.90    2.0000 GAGE1                821                 
  22                         2.21    537.90     33.10    2.6000 GAGE1                822                 
  23                         5.28    314.90     29.00    4.6000 GAGE1                23                  
  24                         5.15    584.10     29.00    2.8000 GAGE1                24                  
  25                         5.39    903.10     51.30    6.8000 GAGE1                825                 
  26                         7.68    662.50     46.70    5.4000 GAGE1                826                 
  27                         5.14    673.90     53.70    4.8000 GAGE1                827                 
  28                         8.63    592.20     57.00    5.3000 GAGE1                828                 
  29                         3.76    686.00     62.00    2.7000 GAGE1                829                 
  
  
  ************
  Node Summary
  ************
                                           Invert      Max.    Ponded    External
  Name                 Type                 Elev.     Depth      Area    Inflow  
  -------------------------------------------------------------------------------
  804                  JUNCTION              7.48     20.00       0.0
  805                  JUNCTION              5.24     20.00       0.0
  806                  JUNCTION             33.11     20.00       0.0
  807                  JUNCTION             19.91     20.00       0.0
  808                  JUNCTION            150.53     20.00       0.0
  809                  JUNCTION            141.88     20.00       0.0
  810                  JUNCTION            150.43     20.00       0.0
  811                  JUNCTION            154.27     20.00       0.0
  812                  JUNCTION              5.38     20.00       0.0
  813                  JUNCTION              8.92     20.00       0.0
  814                  JUNCTION             19.57     20.00       0.0
  815                  JUNCTION             21.56     20.00       0.0
  816                  JUNCTION             16.76     20.00       0.0
  817                  JUNCTION             12.82     20.00       0.0
  819                  JUNCTION              8.84     20.00       0.0
  820                  JUNCTION             11.87     20.00       0.0
  821                  JUNCTION             30.27     20.00       0.0
  822                  JUNCTION             17.93     20.00       0.0
  825                  JUNCTION             15.03     20.00       0.0
  826                  JUNCTION             30.76     20.00       0.0
  827                  JUNCTION             35.31     20.00       0.0
  828                  JUNCTION             15.49     20.00       0.0
  829                  JUNCTION             19.58     20.00       0.0
  906                  JUNCTION             12.31     20.00       0.0
  907                  JUNCTION             17.52     20.00       0.0
  908                  JUNCTION            126.72     20.00       0.0
  909                  JUNCTION            129.78     20.00       0.0
  910                  JUNCTION            133.65     20.00       0.0
  921                  JUNCTION             22.81     20.00       0.0
  922                  JUNCTION             12.70     20.00       0.0
  926                  JUNCTION              8.85     20.00       0.0
  927                  JUNCTION             24.66     20.00       0.0
  928                  JUNCTION              7.58     20.00       0.0
  930                  JUNCTION             16.76     20.00       0.0
  508                  JUNCTION            117.52     20.00       0.0
  4                    OUTFALL               0.00      1.50       0.0
  5                    OUTFALL               0.00      2.00       0.0
  12                   OUTFALL               0.00      0.67       0.0
  13                   OUTFALL               0.00      0.67       0.0
  14                   OUTFALL               0.00      1.00       0.0
  16                   OUTFALL               0.00      1.50       0.0
  19                   OUTFALL               0.00      1.00       0.0
  20                   OUTFALL               0.00      2.00       0.0
  25                   OUTFALL               0.00      2.50       0.0
  
  
  ************
  Link Summary
  ************
  Name             From Node        To Node          Type            Length    %Slope Roughness
  ---------------------------------------------------------------------------------------------
  508              508              907              CONDUIT          101.0  705.3456    0.0120
  804              804              4                CONDUIT          409.0    1.8292    0.0130
  805              805              5                CONDUIT          280.0    1.8718    0.0130
  806              806              906              CONDUIT          428.0    4.8656    0.0130
  807              807              907              CONDUIT          230.0    1.0392    0.0130
  808              808              908              CONDUIT          481.0    4.9562    0.0130
  809              809              909              CONDUIT          360.0    3.3630    0.0130
  810              810              910              CONDUIT          341.0    4.9268    0.0130
  811              811              808              CONDUIT          231.0    1.6193    0.0130
  812              812              12               CONDUIT          430.5    1.2498    0.0130
  813              813              13               CONDUIT          367.0    2.4312    0.0130
  814              814              14               CONDUIT          420.0    4.6646    0.0130
  815              815              814              CONDUIT           75.0    2.6543    0.0130
  816              816              16               CONDUIT          277.0    6.0616    0.0130
  817              817              813              CONDUIT          394.0    0.9899    0.0130
  819              819              19               CONDUIT          254.0    3.4824    0.0130
  820              820              20               CONDUIT          210.0    5.6614    0.0130
  821              821              921              CONDUIT          336.0    2.2208    0.0130
  822              822              922              CONDUIT          208.0    2.5152    0.0130
  825              825              25               CONDUIT          244.0    6.1716    0.0130
  826              826              926              CONDUIT          358.0    6.1316    0.0130
  827              827              927              CONDUIT          236.0    4.5173    0.0130
  828              828              928              CONDUIT          256.0    3.0913    0.0130
  829              829              828              CONDUIT          249.5    1.6395    0.0130
  906              906              5                CONDUIT          270.0    4.5640    0.0130
  907              907              906              CONDUIT          148.0    3.5225    0.0130
  908              908              508              CONDUIT          434.0    2.1203    0.0130
  909              909              908              CONDUIT          195.0    1.5694    0.0130
  910              910              908              CONDUIT          274.0    2.5300    0.0130
  921              921              820              CONDUIT          210.0    5.2166    0.0130
  922              922              20               CONDUIT          278.0    4.5731    0.0130
  926              926              25               CONDUIT          280.0    3.1623    0.0130
  927              927              930              CONDUIT          260.0    3.0399    0.0130
  928              928              25               CONDUIT          312.0    2.4302    0.0130
  930              930              926              CONDUIT          256.0    3.0913    0.0130
  
  
  *********************
  Cross Section Summary
  *********************
                                        Full     Full     Hyd.     Max.   No. of     Full
  Conduit          Shape               Depth     Area     Rad.    Width  Barrels     Flow
  ---------------------------------------------------------------------------------------
  508              CIRCULAR             4.00    12.57     1.00     4.00        1  4132.84
  804              CIRCULAR             1.50     1.77     0.38     1.50        1    14.21
  805              CIRCULAR             1.00     0.79     0.25     1.00        1     4.87
  806              CIRCULAR             0.67     0.35     0.17     0.67        1     2.70
  807              CIRCULAR             1.00     0.79     0.25     1.00        1     3.63
  808              CIRCULAR             2.00     3.14     0.50     2.00        1    50.36
  809              CIRCULAR             0.67     0.35     0.17     0.67        1     2.25
  810              CIRCULAR             0.87     0.59     0.22     0.87        1     5.45
  811              CIRCULAR             1.25     1.23     0.31     1.25        1     8.22
  812              CIRCULAR             0.67     0.35     0.17     0.67        1     1.37
  813              CIRCULAR             0.67     0.35     0.17     0.67        1     1.91
  814              CIRCULAR             1.00     0.79     0.25     1.00        1     7.69
  815              CIRCULAR             1.00     0.79     0.25     1.00        1     5.80
  816              CIRCULAR             1.50     1.77     0.38     1.50        1    25.86
  817              CIRCULAR             1.25     1.23     0.31     1.25        1     6.43
  819              CIRCULAR             1.00     0.79     0.25     1.00        1     6.65
  820              CIRCULAR             2.00     3.14     0.50     2.00        1    53.83
  821              CIRCULAR             1.00     0.79     0.25     1.00        1     5.31
  822              CIRCULAR             1.00     0.79     0.25     1.00        1     5.65
  825              CIRCULAR             1.00     0.79     0.25     1.00        1     8.85
  826              CIRCULAR             1.00     0.79     0.25     1.00        1     8.82
  827              CIRCULAR             1.50     1.77     0.38     1.50        1    22.33
  828              CIRCULAR             2.00     3.14     0.50     2.00        1    39.78
  829              CIRCULAR             2.00     3.14     0.50     2.00        1    28.97
  906              CIRCULAR             2.00     3.14     0.50     2.00        1    48.33
  907              CIRCULAR             2.00     3.14     0.50     2.00        1    42.46
  908              CIRCULAR             2.00     3.14     0.50     2.00        1    32.94
  909              CIRCULAR             0.87     0.59     0.22     0.87        1     3.08
  910              CIRCULAR             1.00     0.79     0.25     1.00        1     5.67
  921              CIRCULAR             2.00     3.14     0.50     2.00        1    51.67
  922              CIRCULAR             1.50     1.77     0.38     1.50        1    22.46
  926              CIRCULAR             2.00     3.14     0.50     2.00        1    40.23
  927              CIRCULAR             2.00     3.14     0.50     2.00        1    39.44
  928              CIRCULAR             2.50     4.91     0.62     2.50        1    63.94
  930              CIRCULAR             2.00     3.14     0.50     2.00        1    39.78
  
  
  ****************
  Analysis Options
  ****************
  Flow Units ............... CFS
  Process Models:
    Rainfall/Runoff ........ YES
    RDII ................... NO
    Snowmelt ............... NO
    Groundwater ............ NO
    Flow Routing ........... YES
    Ponding Allowed ........ NO
    Water Quality .......... YES
  Infiltration Method ...... GREEN_AMPT
  Flow Routing Method ...... KINWAVE
  Starting Date ............ 11/28/1973 15:00:00
  Ending Date .............. 11/28/1973 16:00:00
  Antecedent Dry Days ...... 4.0
  Report Time Step ......... 00:01:00
  Wet Time Step ............ 00:01:00
  Dry Time Step ............ 01:00:00
  Routing Time Step ........ 30.00 sec
  
  
  **************************        Volume         Depth
  Runoff Quantity Continuity     acre-feet        inches
  **************************     ---------       -------
  Total Precipitation ......         3.170         0.230
  Evaporation Loss .........         0.043         0.003
  Infiltration Loss ........         1.640         0.119
  Surface Runoff ...........         1.299         0.094
  Final Storage ............         0.192         0.014
  Continuity Error (%) .....        -0.129
  
  
  **************************       TOT.SOL       SUS.SOL          BOD5           COD
  Runoff Quality Continuity            lbs           lbs           lbs           lbs
  **************************    ----------    ----------    ----------    ----------
  Initial Buildup ..........         0.000         0.000         0.000         0.000
  Surface Buildup ..........         0.000         0.000         0.000         0.000
  Wet Deposition ...........       129.236        68.926        43.079        86.157
  Sweeping Removal .........         0.000         0.000         0.000         0.000
  Infiltration Loss ........        66.848        35.652        22.283        44.565
  BMP Removal ..............         0.000         0.000         0.000         0.000
  Surface Runoff ...........        52.951        28.241        17.650        35.301
  Remaining Buildup ........         7.831         4.177         2.610         5.221
  Continuity Error (%) .....         1.242         1.242         1.242         1.242
  
  
  **************************        Volume        Volume
  Flow Routing Continuity        acre-feet      10^6 gal
  **************************     ---------     ---------
  Dry Weather Inflow .......         0.000         0.000
  Wet Weather Inflow .......         0.929         0.303
  Groundwater Inflow .......         0.000         0.000
  RDII Inflow ..............         0.000         0.000
  External Inflow ..........         0.000         0.000
  External Outflow .........         0.912         0.297
  Flooding Loss ............         0.003         0.001
  Evaporation Loss .........         0.000         0.000
  Exfiltration Loss ........         0.000         0.000
  Initial Stored Volume ....         0.000         0.000
  Final Stored Volume ......         0.009         0.003
  Continuity Error (%) .....         0.571
  
  
  **************************       TOT.SOL       SUS.SOL          BOD5           COD
  Quality Routing Continuity           lbs           lbs           lbs           lbs
  **************************    ----------    ----------    ----------    ----------
  Dry Weather Inflow .......         0.000         0.000         0.000         0.000
  Wet Weather Inflow .......        37.880        20.203        12.627        25.253
  Groundwater Inflow .......         0.000         0.000         0.000         0.000
  RDII Inflow ..............         0.000         0.000         0.000         0.000
  External Inflow ..........         0.000         0.000         0.000         0.000
  External Outflow .........        37.151        19.814        12.384        24.767
  Flooding Loss ............         0.134         0.072         0.045         0.090
  Exfiltration Loss ........         0.000         0.000         0.000         0.000
  Mass Reacted .............         0.000         0.000         0.000         0.000
  Initial Stored Mass ......         0.000         0.000         0.000         0.000
  Final Stored Mass ........         0.355         0.189         0.118         0.237
  Continuity Error (%) .....         0.634         0.634         0.634         0.634
  
  
  ********************************
  Highest Flow Instability Indexes
  ********************************
  Link 817 (9)
  Link 813 (8)
  Link 821 (8)
  Link 812 (6)
  Link 508 (6)
  
  
  *************************
  Routing Time Step Summary
  *************************
  Minimum Time Step           :    30.00 sec
  Average Time Step           :    30.00 sec
  Maximum Time Step           :    30.00 sec
  % of Time in Steady State   :     0.00
  Average Iterations per Step :     3.27
  % of Steps Not Converging   :     0.00
  
  
  ***************************
  Subcatchment Runoff Summary
  ***************************
  
  ------------------------------------------------------------------------------------------------------------------------------
                            Total      Total      Total      Total     Imperv       Perv      Total       Total     Peak  Runoff
                           Precip      Runon       Evap      Infil     Runoff     Runoff     Runoff      Runoff   Runoff   Coeff
  Subcatchment                 in         in         in         in         in         in         in    10^6 gal      CFS
  ------------------------------------------------------------------------------------------------------------------------------
  1                          0.23       0.00       0.00       0.12       0.08       0.00       0.08        0.06     4.89   0.329
  2                          0.23       0.00       0.00       0.12       0.10       0.00       0.10        0.03     2.59   0.423
  3                          0.23       0.00       0.00       0.12       0.10       0.00       0.10        0.01     0.94   0.435
  4                          0.23       0.00       0.00       0.12       0.10       0.00       0.10        0.02     1.81   0.426
  5                          0.23       0.00       0.00       0.11       0.10       0.00       0.10        0.02     1.80   0.444
  6                          0.23       0.00       0.00       0.12       0.10       0.00       0.10        0.01     0.94   0.431
  7                          0.23       0.00       0.00       0.10       0.11       0.00       0.11        0.01     1.32   0.494
  8                          0.23       0.00       0.00       0.11       0.11       0.00       0.11        0.01     1.10   0.483
  9                          0.23       0.00       0.00       0.11       0.11       0.00       0.11        0.01     0.64   0.488
  10                         0.23       0.00       0.00       0.11       0.11       0.00       0.11        0.01     0.63   0.488
  11                         0.23       0.00       0.00       0.11       0.11       0.00       0.11        0.01     0.94   0.489
  12                         0.23       0.00       0.00       0.12       0.10       0.00       0.10        0.01     1.29   0.429
  13                         0.23       0.00       0.00       0.13       0.09       0.00       0.09        0.01     1.28   0.397
  14                         0.23       0.00       0.00       0.11       0.10       0.00       0.10        0.02     2.11   0.427
  15                         0.23       0.00       0.00       0.15       0.07       0.00       0.07        0.01     0.70   0.313
  16                         0.23       0.00       0.00       0.15       0.07       0.00       0.07        0.01     0.65   0.307
  17                         0.23       0.00       0.00       0.10       0.11       0.00       0.11        0.01     1.12   0.491
  18                         0.23       0.00       0.00       0.11       0.11       0.00       0.11        0.01     0.90   0.462
  19                         0.23       0.00       0.00       0.12       0.10       0.00       0.10        0.01     0.92   0.434
  20                         0.23       0.00       0.00       0.12       0.10       0.00       0.10        0.02     1.71   0.430
  21                         0.23       0.00       0.00       0.14       0.08       0.00       0.08        0.00     0.46   0.344
  22                         0.23       0.00       0.00       0.15       0.07       0.00       0.07        0.00     0.39   0.306
  23                         0.23       0.00       0.00       0.16       0.06       0.00       0.06        0.01     0.80   0.259
  24                         0.23       0.00       0.00       0.16       0.06       0.00       0.06        0.01     0.79   0.264
  25                         0.23       0.00       0.00       0.11       0.11       0.00       0.11        0.02     1.48   0.470
  26                         0.23       0.00       0.00       0.12       0.10       0.00       0.10        0.02     1.86   0.416
  27                         0.23       0.00       0.00       0.11       0.11       0.00       0.11        0.02     1.45   0.484
  28                         0.23       0.00       0.00       0.10       0.11       0.00       0.11        0.03     2.46   0.491
  29                         0.23       0.00       0.00       0.09       0.13       0.00       0.13        0.01     1.22   0.556
  
  
  ****************************
  Subcatchment Washoff Summary
  ****************************
  
  ----------------------------------------------------------------------------
                             TOT.SOL       SUS.SOL          BOD5           COD
  Subcatchment                   lbs           lbs           lbs           lbs
  ----------------------------------------------------------------------------
  1                            6.884         3.671         2.295         4.589
  2                            3.487         1.860         1.162         2.325
  3                            1.266         0.675         0.422         0.844
  4                            2.438         1.300         0.813         1.625
  5                            2.421         1.291         0.807         1.614
  6                            1.259         0.671         0.420         0.839
  7                            1.776         0.947         0.592         1.184
  8                            1.473         0.786         0.491         0.982
  9                            0.861         0.459         0.287         0.574
  10                           0.843         0.450         0.281         0.562
  11                           1.254         0.669         0.418         0.836
  12                           1.732         0.924         0.577         1.154
  13                           1.723         0.919         0.574         1.149
  14                           2.848         1.519         0.949         1.899
  15                           0.937         0.500         0.312         0.625
  16                           0.878         0.468         0.293         0.585
  17                           1.503         0.801         0.501         1.002
  18                           1.206         0.643         0.402         0.804
  19                           1.235         0.659         0.412         0.823
  20                           2.292         1.223         0.764         1.528
  21                           0.616         0.329         0.205         0.411
  22                           0.527         0.281         0.176         0.351
  23                           1.068         0.570         0.356         0.712
  24                           1.061         0.566         0.354         0.707
  25                           1.980         1.056         0.660         1.320
  26                           2.495         1.331         0.832         1.663
  27                           1.943         1.036         0.648         1.296
  28                           3.313         1.767         1.104         2.209
  29                           1.635         0.872         0.545         1.090
  ----------------------------------------------------------------------------
  System                      52.951        28.241        17.650        35.301
  
  
  ******************
  Node Depth Summary
  ******************
  
  ---------------------------------------------------------------------------------
                                 Average  Maximum  Maximum  Time of Max    Reported
                                   Depth    Depth      HGL   Occurrence   Max Depth
  Node                 Type         Feet     Feet     Feet  days hr:min        Feet
  ---------------------------------------------------------------------------------
  804                  JUNCTION     0.21     0.36     7.84     0  00:40        0.36
  805                  JUNCTION     0.23     0.42     5.66     0  00:40        0.42
  806                  JUNCTION     0.15     0.27    33.38     0  00:40        0.27
  807                  JUNCTION     0.23     0.42    20.33     0  00:40        0.41
  808                  JUNCTION     0.16     0.28   150.81     0  00:40        0.28
  809                  JUNCTION     0.14     0.25   142.13     0  00:40        0.24
  810                  JUNCTION     0.11     0.20   150.63     0  00:40        0.20
  811                  JUNCTION     0.16     0.28   154.55     0  00:40        0.28
  812                  JUNCTION     0.26     0.52     5.90     0  00:40        0.51
  813                  JUNCTION     2.90    20.00    28.92     0  00:34       20.00
  814                  JUNCTION     0.23     0.42    19.99     0  00:40        0.42
  815                  JUNCTION     0.13     0.23    21.79     0  00:40        0.23
  816                  JUNCTION     0.09     0.16    16.92     0  00:40        0.16
  817                  JUNCTION     0.20     0.35    13.17     0  00:40        0.35
  819                  JUNCTION     0.14     0.25     9.09     0  00:40        0.25
  820                  JUNCTION     0.16     0.27    12.14     0  00:40        0.27
  821                  JUNCTION     0.11     0.20    30.47     0  00:40        0.20
  822                  JUNCTION     0.10     0.18    18.11     0  00:40        0.18
  825                  JUNCTION     0.15     0.28    15.31     0  00:40        0.28
  826                  JUNCTION     0.18     0.31    31.07     0  00:40        0.31
  827                  JUNCTION     0.15     0.26    35.57     0  00:40        0.26
  828                  JUNCTION     0.23     0.41    15.90     0  00:40        0.41
  829                  JUNCTION     0.16     0.28    19.86     0  00:40        0.28
  906                  JUNCTION     0.25     0.46    12.77     0  00:41        0.46
  907                  JUNCTION     0.25     0.44    17.96     0  00:41        0.44
  908                  JUNCTION     0.24     0.43   127.15     0  00:41        0.43
  909                  JUNCTION     0.15     0.27   130.05     0  00:41        0.27
  910                  JUNCTION     0.12     0.22   133.87     0  00:40        0.22
  921                  JUNCTION     0.11     0.20    23.01     0  00:41        0.20
  922                  JUNCTION     0.10     0.18    12.88     0  00:40        0.18
  926                  JUNCTION     0.22     0.38     9.23     0  00:40        0.38
  927                  JUNCTION     0.15     0.26    24.92     0  00:40        0.26
  928                  JUNCTION     0.23     0.41     7.99     0  00:40        0.41
  930                  JUNCTION     0.15     0.26    17.02     0  00:41        0.26
  508                  JUNCTION     0.23     0.43   117.95     0  00:41        0.43
  4                    OUTFALL      0.20     0.36     0.36     0  00:41        0.36
  5                    OUTFALL      0.25     0.45     0.45     0  00:41        0.45
  12                   OUTFALL      0.26     0.52     0.52     0  00:41        0.52
  13                   OUTFALL      0.32     0.67     0.67     0  00:37        0.67
  14                   OUTFALL      0.23     0.42     0.42     0  00:40        0.42
  16                   OUTFALL      0.09     0.16     0.16     0  00:40        0.16
  19                   OUTFALL      0.14     0.25     0.25     0  00:40        0.25
  20                   OUTFALL      0.15     0.27     0.27     0  00:40        0.27
  25                   OUTFALL      0.23     0.40     0.40     0  00:41        0.40
  
  
  *******************
  Node Inflow Summary
  *******************
  
  -------------------------------------------------------------------------------------------------
                                  Maximum  Maximum                  Lateral       Total        Flow
                                  Lateral    Total  Time of Max      Inflow      Inflow     Balance
                                   Inflow   Inflow   Occurrence      Volume      Volume       Error
  Node                 Type           CFS      CFS  days hr:min    10^6 gal    10^6 gal     Percent
  -------------------------------------------------------------------------------------------------
  804                  JUNCTION      1.81     1.81     0  00:40      0.0194      0.0194       0.000
  805                  JUNCTION      1.80     1.80     0  00:40      0.0193      0.0193       0.000
  806                  JUNCTION      0.94     0.94     0  00:40      0.0101      0.0101       0.000
  807                  JUNCTION      1.32     1.32     0  00:40      0.0141      0.0141       0.000
  808                  JUNCTION      1.10     2.03     0  00:40      0.0118      0.0217       0.000
  809                  JUNCTION      0.64     0.64     0  00:40     0.00688     0.00688       0.000
  810                  JUNCTION      0.63     0.63     0  00:40     0.00673     0.00673       0.000
  811                  JUNCTION      0.94     0.94     0  00:40        0.01        0.01       0.000
  812                  JUNCTION      1.29     1.29     0  00:40      0.0138      0.0138       0.000
  813                  JUNCTION      1.28     2.38     0  00:40      0.0137      0.0256       0.000
  814                  JUNCTION      2.11     2.81     0  00:40      0.0227      0.0301       0.000
  815                  JUNCTION      0.70     0.70     0  00:40     0.00748     0.00748       0.000
  816                  JUNCTION      0.65     0.65     0  00:40       0.007       0.007      -0.000
  817                  JUNCTION      1.12     1.12     0  00:40       0.012       0.012       0.000
  819                  JUNCTION      0.92     0.92     0  00:40     0.00984     0.00984       0.000
  820                  JUNCTION      1.71     2.16     0  00:40      0.0183      0.0231       0.000
  821                  JUNCTION      0.46     0.46     0  00:40     0.00492     0.00492       0.000
  822                  JUNCTION      0.39     0.39     0  00:40     0.00421     0.00421       0.000
  825                  JUNCTION      1.48     1.48     0  00:40      0.0158      0.0158      -0.000
  826                  JUNCTION      1.86     1.86     0  00:40      0.0199      0.0199       0.000
  827                  JUNCTION      1.45     1.45     0  00:40      0.0155      0.0155       0.000
  828                  JUNCTION      2.46     3.66     0  00:40      0.0264      0.0393       0.000
  829                  JUNCTION      1.22     1.22     0  00:40       0.013       0.013       0.000
  906                  JUNCTION      0.00     5.50     0  00:41           0      0.0584       0.000
  907                  JUNCTION      0.00     4.57     0  00:41           0      0.0486       0.000
  908                  JUNCTION      0.00     3.29     0  00:41           0       0.035       0.000
  909                  JUNCTION      0.00     0.64     0  00:41           0     0.00684       0.000
  910                  JUNCTION      0.00     0.63     0  00:40           0     0.00668       0.000
  921                  JUNCTION      0.00     0.46     0  00:41           0     0.00486       0.000
  922                  JUNCTION      0.00     0.39     0  00:40           0     0.00418       0.000
  926                  JUNCTION      0.00     3.26     0  00:40           0      0.0349       0.000
  927                  JUNCTION      0.00     1.44     0  00:40           0      0.0154       0.000
  928                  JUNCTION      0.00     3.64     0  00:40           0       0.039       0.000
  930                  JUNCTION      0.00     1.44     0  00:41           0      0.0153       0.000
  508                  JUNCTION      0.00     3.28     0  00:41           0      0.0346       0.000
  4                    OUTFALL       0.00     1.81     0  00:41           0      0.0192       0.000
  5                    OUTFALL       0.00     7.27     0  00:41           0      0.0772       0.000
  12                   OUTFALL       0.00     1.30     0  00:41           0      0.0137       0.000
  13                   OUTFALL       0.00     2.06     0  00:37           0      0.0245       0.000
  14                   OUTFALL       0.00     2.78     0  00:40           0      0.0299       0.000
  16                   OUTFALL       0.00     0.65     0  00:40           0     0.00695       0.000
  19                   OUTFALL       0.00     0.91     0  00:40           0     0.00976       0.000
  20                   OUTFALL       0.00     2.54     0  00:40           0      0.0272       0.000
  25                   OUTFALL       0.00     8.28     0  00:40           0      0.0889       0.000
  
  
  *********************
  Node Flooding Summary
  *********************
  
  Flooding refers to all water that overflows a node, whether it ponds or not.
  --------------------------------------------------------------------------
                                                             Total   Maximum
                                 Maximum   Time of Max       Flood    Ponded
                        Hours       Rate    Occurrence      Volume    Volume
  Node                 Flooded       CFS   days hr:min    10^6 gal  1000 ft³
  --------------------------------------------------------------------------
  813                     0.13      0.47      0  00:40       0.001     0.000
  
  
  ***********************
  Outfall Loading Summary
  ***********************
  
  -------------------------------------------------------------------------------------------------------------------
                         Flow       Avg       Max       Total         Total         Total         Total         Total
                         Freq      Flow      Flow      Volume       TOT.SOL       SUS.SOL          BOD5           COD
  Outfall Node           Pcnt       CFS       CFS    10^6 gal           lbs           lbs           lbs           lbs
  -------------------------------------------------------------------------------------------------------------------
  4                     93.33      0.76      1.81       0.019         2.399         1.279         0.800         1.599
  5                     94.17      3.05      7.27       0.077         9.652         5.148         3.217         6.435
  12                    92.50      0.55      1.30       0.014         1.710         0.912         0.570         1.140
  13                    94.17      0.97      2.06       0.025         3.065         1.635         1.022         2.043
  14                    94.17      1.18      2.78       0.030         3.744         1.997         1.248         2.496
  16                    94.17      0.27      0.65       0.007         0.869         0.464         0.290         0.579
  19                    94.17      0.39      0.91       0.010         1.222         0.652         0.407         0.815
  20                    95.83      1.05      2.54       0.027         3.397         1.812         1.132         2.265
  25                    96.67      3.42      8.28       0.089        11.124         5.933         3.708         7.416
  -------------------------------------------------------------------------------------------------------------------
  System                94.35     11.64     27.38       0.297        37.182        19.830        12.394        24.788
  
  
  ********************
  Link Flow Summary
  ********************
  
  -----------------------------------------------------------------------------
                                 Maximum  Time of Max   Maximum    Max/    Max/
                                  |Flow|   Occurrence   |Veloc|    Full    Full
  Link                 Type          CFS  days hr:min    ft/sec    Flow   Depth
  -----------------------------------------------------------------------------
  508                  CONDUIT      3.28     0  00:41     49.07    0.00    0.02
  804                  CONDUIT      1.81     0  00:41      5.70    0.13    0.24
  805                  CONDUIT      1.78     0  00:41      5.86    0.37    0.42
  806                  CONDUIT      0.94     0  00:41      7.33    0.35    0.41
  807                  CONDUIT      1.30     0  00:41      4.34    0.36    0.42
  808                  CONDUIT      2.02     0  00:41      8.10    0.04    0.14
  809                  CONDUIT      0.64     0  00:41      5.82    0.29    0.37
  810                  CONDUIT      0.63     0  00:40      6.41    0.12    0.23
  811                  CONDUIT      0.93     0  00:40      4.61    0.11    0.23
  812                  CONDUIT      1.30     0  00:41      4.74    0.95    0.77
  813                  CONDUIT      2.06     0  00:37      6.66    1.08    1.00
  814                  CONDUIT      2.78     0  00:40      9.21    0.36    0.42
  815                  CONDUIT      0.70     0  00:40      4.99    0.12    0.23
  816                  CONDUIT      0.65     0  00:40      6.41    0.03    0.11
  817                  CONDUIT      1.13     0  00:41      4.19    0.18    0.28
  819                  CONDUIT      0.91     0  00:40      6.08    0.14    0.25
  820                  CONDUIT      2.15     0  00:40      8.43    0.04    0.14
  821                  CONDUIT      0.46     0  00:41      4.37    0.09    0.20
  822                  CONDUIT      0.39     0  00:40      4.33    0.07    0.18
  825                  CONDUIT      1.47     0  00:40      8.54    0.17    0.28
  826                  CONDUIT      1.84     0  00:40      9.09    0.21    0.31
  827                  CONDUIT      1.44     0  00:40      7.26    0.06    0.17
  828                  CONDUIT      3.64     0  00:40      7.97    0.09    0.20
  829                  CONDUIT      1.21     0  00:40      4.70    0.04    0.14
  906                  CONDUIT      5.48     0  00:41     10.25    0.11    0.23
  907                  CONDUIT      4.56     0  00:41      8.84    0.11    0.22
  908                  CONDUIT      3.28     0  00:41      6.88    0.10    0.21
  909                  CONDUIT      0.64     0  00:41      4.20    0.21    0.31
  910                  CONDUIT      0.63     0  00:41      4.93    0.11    0.22
  921                  CONDUIT      0.46     0  00:41      5.15    0.01    0.07
  922                  CONDUIT      0.39     0  00:41      5.03    0.02    0.09
  926                  CONDUIT      3.26     0  00:41      7.75    0.08    0.19
  927                  CONDUIT      1.44     0  00:41      6.09    0.04    0.13
  928                  CONDUIT      3.58     0  00:41      7.14    0.06    0.16
  930                  CONDUIT      1.43     0  00:41      6.11    0.04    0.13
  
  
  *************************
  Conduit Surcharge Summary
  *************************
  
  ----------------------------------------------------------------------------
                                                           Hours        Hours 
                         --------- Hours Full --------   Above Full   Capacity
  Conduit                Both Ends  Upstream  Dnstream   Normal Flow   Limited
  ----------------------------------------------------------------------------
  813                         0.13      0.13      0.13      0.04         0.13
  
  
  ***************************
  Link Pollutant Load Summary
  ***************************
  
  ----------------------------------------------------------------------------
                             TOT.SOL       SUS.SOL          BOD5           COD
  Link                           lbs           lbs           lbs           lbs
  ----------------------------------------------------------------------------
  508                          4.325         2.307         1.442         2.884
  804                          2.399         1.279         0.800         1.599
  805                          2.395         1.277         0.798         1.596
  806                          1.250         0.667         0.417         0.834
  807                          1.754         0.935         0.585         1.169
  808                          2.691         1.435         0.897         1.794
  809                          0.856         0.456         0.285         0.570
  810                          0.836         0.446         0.279         0.558
  811                          1.243         0.663         0.414         0.829
  812                          1.710         0.912         0.570         1.140
  813                          3.065         1.635         1.022         2.043
  814                          3.744         1.997         1.248         2.496
  815                          0.933         0.498         0.311         0.622
  816                          0.869         0.464         0.290         0.579
  817                          1.479         0.789         0.493         0.986
  819                          1.222         0.652         0.407         0.815
  820                          2.878         1.535         0.959         1.918
  821                          0.608         0.324         0.203         0.405
  822                          0.522         0.278         0.174         0.348
  825                          1.969         1.050         0.656         1.313
  826                          2.473         1.319         0.824         1.649
  827                          1.929         1.029         0.643         1.286
  828                          4.879         2.602         1.626         3.253
  829                          1.616         0.862         0.539         1.077
  906                          7.257         3.871         2.419         4.838
  907                          6.050         3.227         2.017         4.034
  908                          4.326         2.307         1.442         2.884
  909                          0.851         0.454         0.284         0.567
  910                          0.831         0.443         0.277         0.554
  921                          0.606         0.323         0.202         0.404
  922                          0.520         0.277         0.173         0.346
  926                          4.330         2.309         1.443         2.887
  927                          1.908         1.018         0.636         1.272
  928                          4.824         2.573         1.608         3.216
  930                          1.891         1.009         0.630         1.261
  

  Analysis begun on:  Thu Nov 16 00:18:34 2023
  Analysis ended on:  Thu Nov 16 00:18:34 2023
  Total elapsed time: < 1 sec